          21

C    -2.6812231909   -0.6959360493    0.0000260000
H    -3.7002452606   -1.0788600783    0.0000440000
C    -2.5738901802    0.6957730468    0.0001180000
H    -3.5145482486    1.2408780860    0.0001950000
C    -1.4218760993    1.4767231038    0.0001170000
H    -1.5799541124    2.5548471812    0.0001350000
C    -0.0912550062    1.0752070778    0.0000220000
C     1.0215430701    1.9205391355   -0.0000660000
H     0.9865200719    3.0030322114   -0.0001130000
C     2.1751101540    1.1261970787   -0.0001640000
H     3.1924972247    1.5049961076   -0.0002570000
C     1.8423021314   -0.2336640165    0.0000770000
C     0.4367100311   -0.3232630228   -0.0001520000
C    -1.6855441192   -1.6688461163   -0.0000930000
H    -2.0323531451   -2.6992811899   -0.0000990000
C    -0.3002800215   -1.4972131062   -0.0001800000
H     0.2839210201   -2.4170731699   -0.0002010000
C     2.8057101965   -1.3830360979    0.0002190000
H     2.6812081887   -2.0212941449    0.8836160631
H     2.6812311920   -2.0214501411   -0.8830650626
H     3.8378812731   -1.0206750713    0.0002000000
